mol1
 OpenBabel02212211233D

 20 19  0  0  0  0  0  0  0  0999 V2000
    1.0662   -0.6046   -0.2205 C   0  0  0  0  0  0  0  0  0  0  0  0
    0.8149    0.6422   -0.6377 C   0  0  0  0  0  0  0  0  0  0  0  0
   -0.5667   -2.1485    0.9594 C   0  0  0  0  0  0  0  0  0  0  0  0
    2.5912    3.8169   -0.6111 C   0  0  0  0  0  0  0  0  0  0  0  0
    0.1288   -1.7733   -0.3538 C   0  0  0  0  0  0  0  0  0  0  0  0
    1.4154    2.9308   -0.9652 C   0  0  0  0  0  0  0  0  0  0  0  0
   -0.3072    1.0636   -1.2787 O   0  0  0  0  0  0  0  0  0  0  0  0
    1.7077    1.6333   -0.4471 O   0  0  0  0  0  0  0  0  0  0  0  0
    2.0141   -0.7590    0.2850 H   0  0  0  0  0  0  0  0  0  0  0  0
    0.1738   -2.3808    1.7325 H   0  0  0  0  0  0  0  0  0  0  0  0
   -1.2148   -3.0241    0.8369 H   0  0  0  0  0  0  0  0  0  0  0  0
   -1.1755   -1.3160    1.3291 H   0  0  0  0  0  0  0  0  0  0  0  0
    2.7247    3.8626    0.4738 H   0  0  0  0  0  0  0  0  0  0  0  0
    3.5124    3.4286   -1.0555 H   0  0  0  0  0  0  0  0  0  0  0  0
    2.4234    4.8319   -0.9855 H   0  0  0  0  0  0  0  0  0  0  0  0
   -0.6372   -1.5887   -1.1242 H   0  0  0  0  0  0  0  0  0  0  0  0
    0.6855   -2.6435   -0.7254 H   0  0  0  0  0  0  0  0  0  0  0  0
    1.2725    2.8769   -2.0506 H   0  0  0  0  0  0  0  0  0  0  0  0
    0.4864    3.3094   -0.5239 H   0  0  0  0  0  0  0  0  0  0  0  0
   -0.9014    0.3083   -1.3735 H   0  0  0  0  0  0  0  0  0  0  0  0
  1  9  1  0  0  0  0
  2  8  1  0  0  0  0
  2  1  2  0  0  0  0
  3 12  1  0  0  0  0
  3 10  1  0  0  0  0
  4 13  1  0  0  0  0
  5  1  1  0  0  0  0
  5  3  1  0  0  0  0
  6  4  1  0  0  0  0
  6 19  1  0  0  0  0
  6  8  1  0  0  0  0
  7  2  1  0  0  0  0
 11  3  1  0  0  0  0
 14  4  1  0  0  0  0
 15  4  1  0  0  0  0
 16  5  1  0  0  0  0
 17  5  1  0  0  0  0
 18  6  1  0  0  0  0
 20  7  1  0  0  0  0
M  END


$$$$
mol2
 OpenBabel02212211233D

 27 29  0  0  0  0  0  0  0  0999 V2000
   -0.9493    3.7513   -0.3628 C   0  0  0  0  0  0  0  0  0  0  0  0
    0.7709    4.2300    1.2607 C   0  0  0  0  0  0  0  0  0  0  0  0
   -1.1236    5.1135   -0.5636 C   0  0  0  0  0  0  0  0  0  0  0  0
    0.5899    5.5930    1.0576 C   0  0  0  0  0  0  0  0  0  0  0  0
    0.0053    3.2937    0.5554 C   0  0  0  0  0  0  0  0  0  0  0  0
   -0.3577    6.0311    0.1450 C   0  0  0  0  0  0  0  0  0  0  0  0
   -0.9174   -1.3978   -1.1115 C   0  0  0  0  0  0  0  0  0  0  0  0
   -0.0446   -1.5210    0.0770 C   0  0  0  0  0  0  0  0  0  0  0  0
   -0.2534    0.8603    0.0514 C   0  0  0  0  0  0  0  0  0  0  0  0
    1.1911    1.4641    1.7851 C   0  0  0  0  0  0  0  0  0  0  0  0
    1.0350   -0.0643    1.8043 C   0  0  0  0  0  0  0  0  0  0  0  0
   -1.3661   -0.2931   -1.5857 N   0  0  0  0  0  0  0  0  0  0  0  0
   -1.0242    0.9021   -0.9817 N   0  0  0  0  0  0  0  0  0  0  0  0
    0.2030    1.9202    0.8080 N   0  0  0  0  0  0  0  0  0  0  0  0
    0.2601   -0.3010    0.5986 N   0  0  0  0  0  0  0  0  0  0  0  0
    0.3452   -2.5900    0.5234 O   0  0  0  0  0  0  0  0  0  0  0  0
   -1.2385   -2.5639   -1.6833 O   0  0  0  0  0  0  0  0  0  0  0  0
   -0.5857    7.7373   -0.1142 Cl  0  0  0  0  0  0  0  0  0  0  0  0
   -1.5384    3.0387   -0.9254 H   0  0  0  0  0  0  0  0  0  0  0  0
    1.5231    3.9149    1.9760 H   0  0  0  0  0  0  0  0  0  0  0  0
   -1.8627    5.4624   -1.2782 H   0  0  0  0  0  0  0  0  0  0  0  0
    1.1893    6.3110    1.6084 H   0  0  0  0  0  0  0  0  0  0  0  0
    0.9887    1.9010    2.7671 H   0  0  0  0  0  0  0  0  0  0  0  0
    2.2020    1.7606    1.4760 H   0  0  0  0  0  0  0  0  0  0  0  0
    1.9863   -0.5976    1.7549 H   0  0  0  0  0  0  0  0  0  0  0  0
    0.4783   -0.4220    2.6757 H   0  0  0  0  0  0  0  0  0  0  0  0
   -0.7994   -3.2531   -1.1526 H   0  0  0  0  0  0  0  0  0  0  0  0
  1  5  1  0  0  0  0
  2 20  1  0  0  0  0
  3  1  2  0  0  0  0
  3  6  1  0  0  0  0
  4  2  1  0  0  0  0
  4 22  1  0  0  0  0
  5 14  1  0  0  0  0
  5  2  2  0  0  0  0
  6  4  2  0  0  0  0
  7  8  1  0  0  0  0
  8 16  2  0  0  0  0
  8 15  1  0  0  0  0
  9 15  1  0  0  0  0
  9 14  1  0  0  0  0
 10 11  1  0  0  0  0
 10 23  1  0  0  0  0
 11 26  1  0  0  0  0
 12  7  2  0  0  0  0
 12 13  1  0  0  0  0
 13  9  2  0  0  0  0
 14 10  1  0  0  0  0
 15 11  1  0  0  0  0
 17 27  1  0  0  0  0
 17  7  1  0  0  0  0
 18  6  1  0  0  0  0
 19  1  1  0  0  0  0
 21  3  1  0  0  0  0
 24 10  1  0  0  0  0
 25 11  1  0  0  0  0
M  END

$$$$
